LAMMPS (7 Aug 2019)
# ------------------------ INITIALIZATION ----------------------------
units 		metal
dimension	3
boundary	p	p	p
atom_style	atomic

# ----------------------- ATOM DEFINITION ----------------------------
box tilt large
read_data   /home/kacper/praca_inzynierska/lattice_structure/Bi2O3_1526458/cif_file.data
  triclinic box = (0 0 0) to (5.8444 8.1574 6.90827) with tilt (4.99497e-16 -2.92812 6.38734e-16)
  reading atoms ...
  20 atoms
region		whole block 0 10 0 10 0 10
replicate 3 3 3
  triclinic box = (0 0 0) to (17.5332 24.4722 20.7248) with tilt (1.49849e-15 -8.78435 1.9162e-15)
  540 atoms
  replicate CPU = 0.000337496 secs

mass 1 208.98038 #bizmut
mass 2 47.88 #tlen

# ----------------------- FORCE FIELDS -------------------------------
pair_style table linear 50000

pair_coeff 1 1 BiBi.table BiBi
pair_coeff 2 2 OO.table OO
  Should only be flagged at inflection points (../pair_table.cpp:483)
pair_coeff 1 2 BiO.table BiO
  Should only be flagged at inflection points (../pair_table.cpp:483)

# ------------------------- SETTINGS ---------------------------------
#set timestep
reset_timestep	0
timestep 0.001

#set temperature 300K random seed
velocity all create 300 123456

# ------------------------- 1 step heat up------------------------------------
#Fixes
fix 1 all npt temp 300.0 3000.0 0.01 iso 0 0 5 drag 1

#set thermo output
thermo 100 #step to print thermo output
thermo_style custom step lx ly lz press pxx pyy pzz pe temp

dump myDump all atom 100 dump.atom
run     1000
  update every 1 steps, delay 10 steps, check yes
Step Lx Ly Lz Press Pxx Pyy Pzz PotEng Temp
0      17.5332      24.4722    20.724798    1199686.3    1286719.6    1105866.4    1206473.1    2105.5123          300
Averages over the last 6 of 11 rows, steps 500 to 1000:
Lx Ly Lz Press Pxx Pyy Pzz PotEng Temp
21.3624 29.8168 25.251 66282.4 80392.9 42722.3 75731.9 -880.308 2282.59
Loop time of 0.235123 on 1 procs for 1000 steps with 540 atoms

unfix 1

# ------------------------- 2 step freeze------------------------------------
#Fixes
fix 1 all npt temp 3000.0 3.0 0.01 iso 0 0 5 drag 1

#set thermo output
thermo 100 #step to print thermo output
thermo_style custom step lx ly lz press pxx pyy pzz pe temp

run     2000
Step Lx Ly Lz Press Pxx Pyy Pzz PotEng Temp
1000    22.187196    30.968078    26.225969    57506.632    62971.652    56066.683     53481.56   -756.82649     2950.085
Averages over the last 11 of 21 rows, steps 2000 to 3000:
Lx Ly Lz Press Pxx Pyy Pzz PotEng Temp
23.7295 33.1207 28.049 10934.6 9924 10625.6 12254.3 -994.539 784.068
Loop time of 0.341228 on 1 procs for 2000 steps with 540 atoms

unfix 1

# ------------------------- 3 step stay------------------------------------
#Fixes
fix 1 all npt temp 3.0 3.0 0.01 iso 0 0 5 drag 1

#set thermo output
thermo 100 #step to print thermo output
thermo_style custom step lx ly lz press pxx pyy pzz pe temp

run     1000
Step Lx Ly Lz Press Pxx Pyy Pzz PotEng Temp
3000    24.098598    33.635943    28.485307   -837.92273   -2004.6496   -692.47223    183.35367   -1108.9009    35.708342
Averages over the last 6 of 11 rows, steps 3500 to 4000:
Lx Ly Lz Press Pxx Pyy Pzz PotEng Temp
24.0483 33.5657 28.4258 201.062 -1079.19 451.282 1231.1 -1069.65 4.87433
Loop time of 0.136552 on 1 procs for 1000 steps with 540 atoms

unfix 1
